<?xml version="1.0" encoding="UTF-8"?>

<!-- generated on 2024-08-10 19:33:24.938820 by randomTrips.py UNKNOWN
<configuration>
    <net-file value="osm.net.xml"/>
    <output-trip-file value="highCongestionTrips.rou.xml"/>
    <route-file value="highCongestionRoutes.rou.xml"/>
    <trip-attributes value="departPos='random' departSpeed='random' departLane='best'"/>
    <fringe-factor value="10"/>
    <validate value="True"/>
    <end value="6000.0"/>
    <period value="0.3"/>
</configuration>
-->

<!-- generated on 2024-08-10 19:33:24 by Eclipse SUMO duarouter Version 1.19.0
<configuration xmlns:xsi="http://www.w3.org/2001/XMLSchema-instance" xsi:noNamespaceSchemaLocation="http://sumo.dlr.de/xsd/duarouterConfiguration.xsd">

    <input>
        <net-file value="osm.net.xml"/>
        <route-files value="highCongestionTrips.rou.xml"/>
    </input>

    <output>
        <output-file value="highCongestionTrips.rou.xml.tmp"/>
        <alternatives-output value="NUL"/>
        <write-trips value="true"/>
    </output>

    <time>
        <begin value="0"/>
        <end value="6000.0"/>
    </time>

    <report>
        <no-warnings value="true"/>
        <ignore-errors value="true"/>
        <no-step-log value="true"/>
    </report>

</configuration>
-->

<routes xmlns:xsi="http://www.w3.org/2001/XMLSchema-instance" xsi:noNamespaceSchemaLocation="http://sumo.dlr.de/xsd/routes_file.xsd">
    <trip id="1" depart="0.30" departLane="best" departPos="random" departSpeed="random" from="N" to="EA0"/>
    <trip id="2" depart="0.60" departLane="best" departPos="random" departSpeed="random" from="W" to="SA2"/>
    <trip id="3" depart="0.90" departLane="best" departPos="random" departSpeed="random" from="W" to="EA0"/>
    <trip id="5" depart="1.50" departLane="best" departPos="random" departSpeed="random" from="E0" to="SA1"/>
    <trip id="6" depart="1.80" departLane="best" departPos="random" departSpeed="random" from="E0" to="EA0"/>
    <trip id="7" depart="2.10" departLane="best" departPos="random" departSpeed="random" from="S1" to="SA2"/>
    <trip id="8" depart="2.40" departLane="best" departPos="random" departSpeed="random" from="E1" to="SA2"/>
    <trip id="10" depart="3.00" departLane="best" departPos="random" departSpeed="random" from="W" to="SA2"/>
    <trip id="11" depart="3.30" departLane="best" departPos="random" departSpeed="random" from="N" to="EA0"/>
    <trip id="13" depart="3.90" departLane="best" departPos="random" departSpeed="random" from="E0" to="EA0"/>
    <trip id="14" depart="4.20" departLane="best" departPos="random" departSpeed="random" from="W" to="SA2"/>
    <trip id="15" depart="4.50" departLane="best" departPos="random" departSpeed="random" from="W" to="WA0"/>
    <trip id="17" depart="5.10" departLane="best" departPos="random" departSpeed="random" from="N" to="SA2"/>
    <trip id="18" depart="5.40" departLane="best" departPos="random" departSpeed="random" from="W" to="SA2"/>
    <trip id="19" depart="5.70" departLane="best" departPos="random" departSpeed="random" from="W" to="SA2"/>
    <trip id="21" depart="6.30" departLane="best" departPos="random" departSpeed="random" from="E1" to="NA0"/>
    <trip id="22" depart="6.60" departLane="best" departPos="random" departSpeed="random" from="E0" to="EA0"/>
    <trip id="23" depart="6.90" departLane="best" departPos="random" departSpeed="random" from="E0" to="NA0"/>
    <trip id="24" depart="7.20" departLane="best" departPos="random" departSpeed="random" from="S0" to="NA0"/>
    <trip id="25" depart="7.50" departLane="best" departPos="random" departSpeed="random" from="N" to="EA0"/>
    <trip id="26" depart="7.80" departLane="best" departPos="random" departSpeed="random" from="N" to="WA2"/>
    <trip id="27" depart="8.10" departLane="best" departPos="random" departSpeed="random" from="S1" to="SA2"/>
    <trip id="28" depart="8.40" departLane="best" departPos="random" departSpeed="random" from="E0" to="WA0"/>
    <trip id="29" depart="8.70" departLane="best" departPos="random" departSpeed="random" from="E0" to="NA0"/>
    <trip id="31" depart="9.30" departLane="best" departPos="random" departSpeed="random" from="S0" to="SA2"/>
    <trip id="32" depart="9.60" departLane="best" departPos="random" departSpeed="random" from="W" to="WA2"/>
    <trip id="33" depart="9.90" departLane="best" departPos="random" departSpeed="random" from="E1" to="E1"/>
    <trip id="34" depart="10.20" departLane="best" departPos="random" departSpeed="random" from="N" to="NA0"/>
    <trip id="35" depart="10.50" departLane="best" departPos="random" departSpeed="random" from="E0" to="WA2"/>
    <trip id="36" depart="10.80" departLane="best" departPos="random" departSpeed="random" from="W" to="NA0"/>
    <trip id="37" depart="11.10" departLane="best" departPos="random" departSpeed="random" from="S1" to="NA0"/>
    <trip id="39" depart="11.70" departLane="best" departPos="random" departSpeed="random" from="N" to="NA0"/>
    <trip id="40" depart="12.00" departLane="best" departPos="random" departSpeed="random" from="S0" to="NA0"/>
    <trip id="41" depart="12.30" departLane="best" departPos="random" departSpeed="random" from="S0" to="WA2"/>
    <trip id="42" depart="12.60" departLane="best" departPos="random" departSpeed="random" from="N" to="EA0"/>
    <trip id="44" depart="13.20" departLane="best" departPos="random" departSpeed="random" from="E0" to="EA0"/>
    <trip id="45" depart="13.50" departLane="best" departPos="random" departSpeed="random" from="E0" to="SA2"/>
    <trip id="46" depart="13.80" departLane="best" departPos="random" departSpeed="random" from="W" to="NA0"/>
    <trip id="47" depart="14.10" departLane="best" departPos="random" departSpeed="random" from="E0" to="NA0"/>
    <trip id="50" depart="15.00" departLane="best" departPos="random" departSpeed="random" from="E" to="WA0"/>
    <trip id="51" depart="15.30" departLane="best" departPos="random" departSpeed="random" from="SA0" to="SA2"/>
    <trip id="52" depart="15.60" departLane="best" departPos="random" departSpeed="random" from="N" to="SA2"/>
    <trip id="53" depart="15.90" departLane="best" departPos="random" departSpeed="random" from="E0" to="NA0"/>
    <trip id="54" depart="16.20" departLane="best" departPos="random" departSpeed="random" from="S0" to="WA2"/>
    <trip id="55" depart="16.50" departLane="best" departPos="random" departSpeed="random" from="W" to="NA0"/>
    <trip id="56" depart="16.80" departLane="best" departPos="random" departSpeed="random" from="S0" to="EA0"/>
    <trip id="57" depart="17.10" departLane="best" departPos="random" departSpeed="random" from="W" to="WA2"/>
    <trip id="58" depart="17.40" departLane="best" departPos="random" departSpeed="random" from="N" to="SA2"/>
    <trip id="59" depart="17.70" departLane="best" departPos="random" departSpeed="random" from="S0" to="EA0"/>
    <trip id="60" depart="18.00" departLane="best" departPos="random" departSpeed="random" from="W" to="SA2"/>
    <trip id="61" depart="18.30" departLane="best" departPos="random" departSpeed="random" from="W" to="SA2"/>
    <trip id="62" depart="18.60" departLane="best" departPos="random" departSpeed="random" from="E" to="NA0"/>
    <trip id="63" depart="18.90" departLane="best" departPos="random" departSpeed="random" from="E" to="WA2"/>
    <trip id="64" depart="19.20" departLane="best" departPos="random" departSpeed="random" from="W" to="WA2"/>
    <trip id="65" depart="19.50" departLane="best" departPos="random" departSpeed="random" from="N" to="EA0"/>
    <trip id="66" depart="19.80" departLane="best" departPos="random" departSpeed="random" from="W" to="WA2"/>
    <trip id="68" depart="20.40" departLane="best" departPos="random" departSpeed="random" from="E0" to="WA2"/>
    <trip id="69" depart="20.70" departLane="best" departPos="random" departSpeed="random" from="W" to="EA0"/>
    <trip id="70" depart="21.00" departLane="best" departPos="random" departSpeed="random" from="S0" to="SA2"/>
    <trip id="71" depart="21.30" departLane="best" departPos="random" departSpeed="random" from="N" to="WA2"/>
    <trip id="72" depart="21.60" departLane="best" departPos="random" departSpeed="random" from="N" to="EA0"/>
    <trip id="74" depart="22.20" departLane="best" departPos="random" departSpeed="random" from="E0" to="NA0"/>
    <trip id="76" depart="22.80" departLane="best" departPos="random" departSpeed="random" from="N" to="SA1"/>
    <trip id="77" depart="23.10" departLane="best" departPos="random" departSpeed="random" from="E0" to="EA0"/>
    <trip id="78" depart="23.40" departLane="best" departPos="random" departSpeed="random" from="N" to="SA2"/>
    <trip id="79" depart="23.70" departLane="best" departPos="random" departSpeed="random" from="E1" to="EA0"/>
    <trip id="80" depart="24.00" departLane="best" departPos="random" departSpeed="random" from="E0" to="SA2"/>
    <trip id="81" depart="24.30" departLane="best" departPos="random" departSpeed="random" from="E1" to="WA2"/>
    <trip id="82" depart="24.60" departLane="best" departPos="random" departSpeed="random" from="W" to="EA0"/>
    <trip id="83" depart="24.90" departLane="best" departPos="random" departSpeed="random" from="E1" to="SA2"/>
    <trip id="84" depart="25.20" departLane="best" departPos="random" departSpeed="random" from="E0" to="EA0"/>
    <trip id="86" depart="25.80" departLane="best" departPos="random" departSpeed="random" from="S0" to="WA2"/>
    <trip id="87" depart="26.10" departLane="best" departPos="random" departSpeed="random" from="W" to="EA0"/>
    <trip id="88" depart="26.40" departLane="best" departPos="random" departSpeed="random" from="E0" to="NA0"/>
    <trip id="90" depart="27.00" departLane="best" departPos="random" departSpeed="random" from="W" to="SA2"/>
    <trip id="92" depart="27.60" departLane="best" departPos="random" departSpeed="random" from="N" to="NA0"/>
    <trip id="93" depart="27.90" departLane="best" departPos="random" departSpeed="random" from="W" to="NA0"/>
    <trip id="95" depart="28.50" departLane="best" departPos="random" departSpeed="random" from="N" to="NA0"/>
    <trip id="96" depart="28.80" departLane="best" departPos="random" departSpeed="random" from="N" to="WA2"/>
    <trip id="97" depart="29.10" departLane="best" departPos="random" departSpeed="random" from="S0" to="WA2"/>
    <trip id="98" depart="29.40" departLane="best" departPos="random" departSpeed="random" from="S0" to="EA0"/>
    <trip id="99" depart="29.70" departLane="best" departPos="random" departSpeed="random" from="salida_80" to="WA2"/>
    <trip id="101" depart="30.30" departLane="best" departPos="random" departSpeed="random" from="W" to="EA0"/>
    <trip id="102" depart="30.60" departLane="best" departPos="random" departSpeed="random" from="S0" to="EA0"/>
    <trip id="103" depart="30.90" departLane="best" departPos="random" departSpeed="random" from="N" to="EA0"/>
    <trip id="105" depart="31.50" departLane="best" departPos="random" departSpeed="random" from="N" to="WA2"/>
    <trip id="106" depart="31.80" departLane="best" departPos="random" departSpeed="random" from="S0" to="NA0"/>
    <trip id="108" depart="32.40" departLane="best" departPos="random" departSpeed="random" from="S0" to="SA2"/>
    <trip id="109" depart="32.70" departLane="best" departPos="random" departSpeed="random" from="E0" to="NA0"/>
    <trip id="110" depart="33.00" departLane="best" departPos="random" departSpeed="random" from="salida_5" to="SA2"/>
    <trip id="111" depart="33.30" departLane="best" departPos="random" departSpeed="random" from="S0" to="WA1"/>
    <trip id="112" depart="33.60" departLane="best" departPos="random" departSpeed="random" from="E0" to="SA2"/>
    <trip id="113" depart="33.90" departLane="best" departPos="random" departSpeed="random" from="S0" to="WA2"/>
    <trip id="114" depart="34.20" departLane="best" departPos="random" departSpeed="random" from="E0" to="salida_5"/>
    <trip id="115" depart="34.50" departLane="best" departPos="random" departSpeed="random" from="E0" to="EA0"/>
    <trip id="116" depart="34.80" departLane="best" departPos="random" departSpeed="random" from="S0" to="SA2"/>
    <trip id="117" depart="35.10" departLane="best" departPos="random" departSpeed="random" from="E1" to="EA0"/>
    <trip id="118" depart="35.40" departLane="best" departPos="random" departSpeed="random" from="W" to="NA0"/>
    <trip id="119" depart="35.70" departLane="best" departPos="random" departSpeed="random" from="S0" to="SA2"/>
    <trip id="120" depart="36.00" departLane="best" departPos="random" departSpeed="random" from="N" to="SA2"/>
    <trip id="121" depart="36.30" departLane="best" departPos="random" departSpeed="random" from="S0" to="WA2"/>
    <trip id="122" depart="36.60" departLane="best" departPos="random" departSpeed="random" from="E0" to="SA2"/>
    <trip id="123" depart="36.90" departLane="best" departPos="random" departSpeed="random" from="E1" to="NA0"/>
    <trip id="124" depart="37.20" departLane="best" departPos="random" departSpeed="random" from="S2" to="NA0"/>
    <trip id="125" depart="37.50" departLane="best" departPos="random" departSpeed="random" from="N" to="WA1"/>
    <trip id="127" depart="38.10" departLane="best" departPos="random" departSpeed="random" from="salida_80" to="salida_80"/>
    <trip id="128" depart="38.40" departLane="best" departPos="random" departSpeed="random" from="E0" to="EA0"/>
    <trip id="129" depart="38.70" departLane="best" departPos="random" departSpeed="random" from="N" to="WA2"/>
    <trip id="130" depart="39.00" departLane="best" departPos="random" departSpeed="random" from="W" to="WA2"/>
    <trip id="131" depart="39.30" departLane="best" departPos="random" departSpeed="random" from="N" to="EA0"/>
    <trip id="132" depart="39.60" departLane="best" departPos="random" departSpeed="random" from="W" to="SA2"/>
    <trip id="133" depart="39.90" departLane="best" departPos="random" departSpeed="random" from="S0" to="salida_80"/>
    <trip id="135" depart="40.50" departLane="best" departPos="random" departSpeed="random" from="W" to="NA0"/>
    <trip id="137" depart="41.10" departLane="best" departPos="random" departSpeed="random" from="E0" to="EA0"/>
    <trip id="138" depart="41.40" departLane="best" departPos="random" departSpeed="random" from="E0" to="SA2"/>
    <trip id="139" depart="41.70" departLane="best" departPos="random" departSpeed="random" from="N" to="SA2"/>
    <trip id="141" depart="42.30" departLane="best" departPos="random" departSpeed="random" from="S0" to="NA0"/>
    <trip id="142" depart="42.60" departLane="best" departPos="random" departSpeed="random" from="S0" to="WA2"/>
    <trip id="143" depart="42.90" departLane="best" departPos="random" departSpeed="random" from="W" to="EA0"/>
    <trip id="144" depart="43.20" departLane="best" departPos="random" departSpeed="random" from="N" to="NA0"/>
    <trip id="145" depart="43.50" departLane="best" departPos="random" departSpeed="random" from="E" to="WA2"/>
    <trip id="146" depart="43.80" departLane="best" departPos="random" departSpeed="random" from="S0" to="NA0"/>
    <trip id="147" depart="44.10" departLane="best" departPos="random" departSpeed="random" from="W" to="SA2"/>
    <trip id="149" depart="44.70" departLane="best" departPos="random" departSpeed="random" from="E0" to="WA2"/>
    <trip id="150" depart="45.00" departLane="best" departPos="random" departSpeed="random" from="W" to="SA2"/>
    <trip id="151" depart="45.30" departLane="best" departPos="random" departSpeed="random" from="W" to="SA2"/>
    <trip id="152" depart="45.60" departLane="best" departPos="random" departSpeed="random" from="E0" to="EA0"/>
    <trip id="153" depart="45.90" departLane="best" departPos="random" departSpeed="random" from="N" to="WA2"/>
    <trip id="154" depart="46.20" departLane="best" departPos="random" departSpeed="random" from="W" to="WA2"/>
    <trip id="155" depart="46.50" departLane="best" departPos="random" departSpeed="random" from="W" to="EA0"/>
    <trip id="156" depart="46.80" departLane="best" departPos="random" departSpeed="random" from="N" to="EA0"/>
    <trip id="157" depart="47.10" departLane="best" departPos="random" departSpeed="random" from="W" to="WA2"/>
    <trip id="158" depart="47.40" departLane="best" departPos="random" departSpeed="random" from="N" to="SA2"/>
    <trip id="159" depart="47.70" departLane="best" departPos="random" departSpeed="random" from="E0" to="WA2"/>
    <trip id="161" depart="48.30" departLane="best" departPos="random" departSpeed="random" from="W" to="WA2"/>
    <trip id="162" depart="48.60" departLane="best" departPos="random" departSpeed="random" from="E0" to="WA0"/>
    <trip id="163" depart="48.90" departLane="best" departPos="random" departSpeed="random" from="N" to="WA2"/>
    <trip id="164" depart="49.20" departLane="best" departPos="random" departSpeed="random" from="W" to="WA2"/>
    <trip id="165" depart="49.50" departLane="best" departPos="random" departSpeed="random" from="W" to="NA0"/>
    <trip id="166" depart="49.80" departLane="best" departPos="random" departSpeed="random" from="W" to="EA0"/>
    <trip id="167" depart="50.10" departLane="best" departPos="random" departSpeed="random" from="W" to="WA2"/>
    <trip id="168" depart="50.40" departLane="best" departPos="random" departSpeed="random" from="E1" to="WA2"/>
    <trip id="169" depart="50.70" departLane="best" departPos="random" departSpeed="random" from="S0" to="NA0"/>
    <trip id="170" depart="51.00" departLane="best" departPos="random" departSpeed="random" from="W" to="EA0"/>
    <trip id="171" depart="51.30" departLane="best" departPos="random" departSpeed="random" from="E0" to="EA0"/>
    <trip id="172" depart="51.60" departLane="best" departPos="random" departSpeed="random" from="N" to="WA2"/>
    <trip id="174" depart="52.20" departLane="best" departPos="random" departSpeed="random" from="S1" to="NA0"/>
    <trip id="179" depart="53.70" departLane="best" departPos="random" departSpeed="random" from="E0" to="NA0"/>
    <trip id="180" depart="54.00" departLane="best" departPos="random" departSpeed="random" from="W" to="NA0"/>
    <trip id="181" depart="54.30" departLane="best" departPos="random" departSpeed="random" from="S0" to="SA1"/>
    <trip id="182" depart="54.60" departLane="best" departPos="random" departSpeed="random" from="N" to="SA2"/>
    <trip id="183" depart="54.90" departLane="best" departPos="random" departSpeed="random" from="N" to="SA2"/>
    <trip id="184" depart="55.20" departLane="best" departPos="random" departSpeed="random" from="E" to="WA2"/>
    <trip id="185" depart="55.50" departLane="best" departPos="random" departSpeed="random" from="S0" to="SA2"/>
    <trip id="186" depart="55.80" departLane="best" departPos="random" departSpeed="random" from="W" to="SA2"/>
    <trip id="187" depart="56.10" departLane="best" departPos="random" departSpeed="random" from="N" to="EA0"/>
    <trip id="188" depart="56.40" departLane="best" departPos="random" departSpeed="random" from="S2" to="NA0"/>
    <trip id="189" depart="56.70" departLane="best" departPos="random" departSpeed="random" from="N" to="WA2"/>
    <trip id="191" depart="57.30" departLane="best" departPos="random" departSpeed="random" from="N" to="NA0"/>
    <trip id="192" depart="57.60" departLane="best" departPos="random" departSpeed="random" from="N" to="NA0"/>
    <trip id="193" depart="57.90" departLane="best" departPos="random" departSpeed="random" from="E0" to="NA0"/>
    <trip id="195" depart="58.50" departLane="best" departPos="random" departSpeed="random" from="W" to="SA2"/>
    <trip id="196" depart="58.80" departLane="best" departPos="random" departSpeed="random" from="N" to="SA2"/>
    <trip id="197" depart="59.10" departLane="best" departPos="random" departSpeed="random" from="E" to="NA0"/>
    <trip id="198" depart="59.40" departLane="best" departPos="random" departSpeed="random" from="N" to="SA2"/>
    <trip id="199" depart="59.70" departLane="best" departPos="random" departSpeed="random" from="S1" to="S2"/>
    <trip id="200" depart="60.00" departLane="best" departPos="random" departSpeed="random" from="S0" to="EA0"/>
    <trip id="201" depart="60.30" departLane="best" departPos="random" departSpeed="random" from="S0" to="WA2"/>
    <trip id="202" depart="60.60" departLane="best" departPos="random" departSpeed="random" from="W" to="EA0"/>
    <trip id="203" depart="60.90" departLane="best" departPos="random" departSpeed="random" from="E0" to="SA1"/>
    <trip id="204" depart="61.20" departLane="best" departPos="random" departSpeed="random" from="S0" to="NA0"/>
    <trip id="205" depart="61.50" departLane="best" departPos="random" departSpeed="random" from="W" to="WA1"/>
    <trip id="206" depart="61.80" departLane="best" departPos="random" departSpeed="random" from="S2" to="EA0"/>
    <trip id="207" depart="62.10" departLane="best" departPos="random" departSpeed="random" from="E0" to="E1"/>
    <trip id="209" depart="62.70" departLane="best" departPos="random" departSpeed="random" from="W" to="EA0"/>
    <trip id="210" depart="63.00" departLane="best" departPos="random" departSpeed="random" from="N" to="SA2"/>
    <trip id="211" depart="63.30" departLane="best" departPos="random" departSpeed="random" from="E0" to="SA2"/>
    <trip id="212" depart="63.60" departLane="best" departPos="random" departSpeed="random" from="S0" to="NA0"/>
    <trip id="214" depart="64.20" departLane="best" departPos="random" departSpeed="random" from="W" to="WA2"/>
    <trip id="215" depart="64.50" departLane="best" departPos="random" departSpeed="random" from="E0" to="NA0"/>
    <trip id="216" depart="64.80" departLane="best" departPos="random" departSpeed="random" from="E0" to="WA2"/>
    <trip id="217" depart="65.10" departLane="best" departPos="random" departSpeed="random" from="S0" to="EA0"/>
    <trip id="218" depart="65.40" departLane="best" departPos="random" departSpeed="random" from="N" to="WA2"/>
    <trip id="219" depart="65.70" departLane="best" departPos="random" departSpeed="random" from="S0" to="WA2"/>
    <trip id="221" depart="66.30" departLane="best" departPos="random" departSpeed="random" from="S0" to="WA2"/>
    <trip id="222" depart="66.60" departLane="best" departPos="random" departSpeed="random" from="W" to="SA2"/>
    <trip id="223" depart="66.90" departLane="best" departPos="random" departSpeed="random" from="SA1" to="SA1"/>
    <trip id="224" depart="67.20" departLane="best" departPos="random" departSpeed="random" from="W" to="SA2"/>
    <trip id="225" depart="67.50" departLane="best" departPos="random" departSpeed="random" from="W" to="WA1"/>
    <trip id="226" depart="67.80" departLane="best" departPos="random" departSpeed="random" from="S0" to="NA0"/>
    <trip id="227" depart="68.10" departLane="best" departPos="random" departSpeed="random" from="N" to="SA2"/>
    <trip id="228" depart="68.40" departLane="best" departPos="random" departSpeed="random" from="W" to="SA2"/>
    <trip id="229" depart="68.70" departLane="best" departPos="random" departSpeed="random" from="S0" to="NA0"/>
    <trip id="230" depart="69.00" departLane="best" departPos="random" departSpeed="random" from="E0" to="NA0"/>
    <trip id="231" depart="69.30" departLane="best" departPos="random" departSpeed="random" from="N" to="NA0"/>
    <trip id="232" depart="69.60" departLane="best" departPos="random" departSpeed="random" from="S0" to="EA0"/>
    <trip id="233" depart="69.90" departLane="best" departPos="random" departSpeed="random" from="E1" to="SA2"/>
    <trip id="235" depart="70.50" departLane="best" departPos="random" departSpeed="random" from="N" to="SA2"/>
    <trip id="236" depart="70.80" departLane="best" departPos="random" departSpeed="random" from="N" to="EA0"/>
    <trip id="237" depart="71.10" departLane="best" departPos="random" departSpeed="random" from="N" to="WA2"/>
    <trip id="238" depart="71.40" departLane="best" departPos="random" departSpeed="random" from="S0" to="SA2"/>
    <trip id="239" depart="71.70" departLane="best" departPos="random" departSpeed="random" from="W" to="WA2"/>
    <trip id="241" depart="72.30" departLane="best" departPos="random" departSpeed="random" from="N" to="WA1"/>
    <trip id="242" depart="72.60" departLane="best" departPos="random" departSpeed="random" from="W" to="WA2"/>
    <trip id="243" depart="72.90" departLane="best" departPos="random" departSpeed="random" from="N" to="WA1"/>
    <trip id="244" depart="73.20" departLane="best" departPos="random" departSpeed="random" from="S0" to="SA2"/>
    <trip id="245" depart="73.50" departLane="best" departPos="random" departSpeed="random" from="E1" to="EA0"/>
    <trip id="247" depart="74.10" departLane="best" departPos="random" departSpeed="random" from="N" to="SA2"/>
    <trip id="248" depart="74.40" departLane="best" departPos="random" departSpeed="random" from="N" to="EA0"/>
    <trip id="249" depart="74.70" departLane="best" departPos="random" departSpeed="random" from="S0" to="EA0"/>
    <trip id="251" depart="75.30" departLane="best" departPos="random" departSpeed="random" from="N" to="SA2"/>
    <trip id="252" depart="75.60" departLane="best" departPos="random" departSpeed="random" from="E0" to="SA2"/>
    <trip id="254" depart="76.20" departLane="best" departPos="random" departSpeed="random" from="E0" to="NA0"/>
    <trip id="255" depart="76.50" departLane="best" departPos="random" departSpeed="random" from="E0" to="NA0"/>
    <trip id="256" depart="76.80" departLane="best" departPos="random" departSpeed="random" from="W" to="NA0"/>
    <trip id="257" depart="77.10" departLane="best" departPos="random" departSpeed="random" from="W" to="WA2"/>
    <trip id="258" depart="77.40" departLane="best" departPos="random" departSpeed="random" from="N" to="EA0"/>
    <trip id="264" depart="79.20" departLane="best" departPos="random" departSpeed="random" from="E0" to="EA0"/>
    <trip id="265" depart="79.50" departLane="best" departPos="random" departSpeed="random" from="E0" to="SA2"/>
    <trip id="266" depart="79.80" departLane="best" departPos="random" departSpeed="random" from="S0" to="EA0"/>
    <trip id="268" depart="80.40" departLane="best" departPos="random" departSpeed="random" from="E0" to="SA2"/>
    <trip id="269" depart="80.70" departLane="best" departPos="random" departSpeed="random" from="W" to="EA0"/>
    <trip id="271" depart="81.30" departLane="best" departPos="random" departSpeed="random" from="E0" to="E1"/>
    <trip id="272" depart="81.60" departLane="best" departPos="random" departSpeed="random" from="N" to="SA2"/>
    <trip id="275" depart="82.50" departLane="best" departPos="random" departSpeed="random" from="SA0" to="SA2"/>
    <trip id="276" depart="82.80" departLane="best" departPos="random" departSpeed="random" from="E0" to="WA2"/>
    <trip id="277" depart="83.10" departLane="best" departPos="random" departSpeed="random" from="W" to="SA2"/>
    <trip id="279" depart="83.70" departLane="best" departPos="random" departSpeed="random" from="W" to="NA0"/>
    <trip id="280" depart="84.00" departLane="best" departPos="random" departSpeed="random" from="N" to="NA0"/>
    <trip id="281" depart="84.30" departLane="best" departPos="random" departSpeed="random" from="S0" to="NA0"/>
    <trip id="282" depart="84.60" departLane="best" departPos="random" departSpeed="random" from="W" to="WA2"/>
    <trip id="283" depart="84.90" departLane="best" departPos="random" departSpeed="random" from="E0" to="salida_5"/>
    <trip id="284" depart="85.20" departLane="best" departPos="random" departSpeed="random" from="S0" to="WA2"/>
    <trip id="287" depart="86.10" departLane="best" departPos="random" departSpeed="random" from="N" to="WA2"/>
    <trip id="288" depart="86.40" departLane="best" departPos="random" departSpeed="random" from="S0" to="SA0"/>
    <trip id="289" depart="86.70" departLane="best" departPos="random" departSpeed="random" from="N" to="WA0"/>
    <trip id="290" depart="87.00" departLane="best" departPos="random" departSpeed="random" from="N" to="WA2"/>
    <trip id="291" depart="87.30" departLane="best" departPos="random" departSpeed="random" from="W" to="EA0"/>
    <trip id="292" depart="87.60" departLane="best" departPos="random" departSpeed="random" from="W" to="NA0"/>
    <trip id="293" depart="87.90" departLane="best" departPos="random" departSpeed="random" from="S0" to="SA2"/>
    <trip id="295" depart="88.50" departLane="best" departPos="random" departSpeed="random" from="W" to="EA0"/>
    <trip id="296" depart="88.80" departLane="best" departPos="random" departSpeed="random" from="E0" to="WA2"/>
    <trip id="297" depart="89.10" departLane="best" departPos="random" departSpeed="random" from="N" to="WA2"/>
    <trip id="299" depart="89.70" departLane="best" departPos="random" departSpeed="random" from="E" to="WA2"/>
    <trip id="300" depart="90.00" departLane="best" departPos="random" departSpeed="random" from="E0" to="WA0"/>
    <trip id="301" depart="90.30" departLane="best" departPos="random" departSpeed="random" from="S0" to="WA1"/>
    <trip id="302" depart="90.60" departLane="best" departPos="random" departSpeed="random" from="SA0" to="SA2"/>
    <trip id="303" depart="90.90" departLane="best" departPos="random" departSpeed="random" from="S0" to="WA2"/>
    <trip id="304" depart="91.20" departLane="best" departPos="random" departSpeed="random" from="E0" to="EA0"/>
    <trip id="306" depart="91.80" departLane="best" departPos="random" departSpeed="random" from="S0" to="S2"/>
    <trip id="307" depart="92.10" departLane="best" departPos="random" departSpeed="random" from="S0" to="NA0"/>
    <trip id="308" depart="92.40" departLane="best" departPos="random" departSpeed="random" from="W" to="NA0"/>
    <trip id="310" depart="93.00" departLane="best" departPos="random" departSpeed="random" from="N" to="EA0"/>
    <trip id="311" depart="93.30" departLane="best" departPos="random" departSpeed="random" from="E0" to="EA0"/>